*Heading
** Job name: PlateWithHole_CPS4 Model name: Model-1
** Generated by: Abaqus/CAE Student Edition 6.14-2
*Preprint, echo=NO, model=NO, history=NO, contact=NO
**
** PARTS
**
*Part, name=Part-1
*Node
      1,           0.,        28.75
      2,        26.25,        28.75
      3,           0.,           5.
      4,    4.7552824,   1.54508495
      5,   4.04508495,   2.93892622
      6,   2.93892622,   4.04508495
      7,   1.54508495,    4.7552824
      8,           5.,           0.
      9,        26.25,           0.
     10,         3.75,        28.75
     11,          7.5,        28.75
     12,        11.25,        28.75
     13,          15.,        28.75
     14,        18.75,        28.75
     15,         22.5,        28.75
     16,           0.,   5.55664063
     17,           0.,     6.484375
     18,           0.,   8.95833302
     19,           0.,    12.916667
     20,           0.,       16.875
** ... 103 like lines cut
*Element, type=CPS3
1,  62, 115,  65
2,  65, 115,  42
3, 105,  60,  57
4,  84,  69,  68
5, 117,  56,  66
*Element, type=CPS4
  6,  36,  35,  52, 120
  7,  32,   6, 106, 105
  8, 118,  59, 108,  63
  9,  72,  15,  14,  75
 10,  56, 107,  59, 118
 11,   1,  22, 116,  10
 12,  77,  78,  20,  19
 13,  68,  70,  67,  64
 14,  44,  72,  89,  45
 15,  16,   3,  37,  51
 16,  55,   7,  34, 104
 17,  53,  31,  30, 107
 18,  67,  18, 114,  64
 19, 123, 100,  88,  96
 20,  22,  21,  87, 116
 21,   8,  43, 113,  23
 22,  23, 113,  50,  24
 23,  24,  50, 112,  25
 24,  54, 111,  26,   4
 25,   5,  28, 109, 108
** ... 75 like lines cut
*Nset, nset=Set-4, generate
   1,  123,    1
*Elset, elset=Set-4, generate
   1,  100,    1
** Section: Section-1
*Solid Section, elset=Set-4, material=Material-1
1.,
*End Part
**  
**
** ASSEMBLY
**
*Assembly, name=Assembly
**  
*Instance, name=Part-1-1, part=Part-1
*End Instance
**  
*Nset, nset=Set-1, instance=Part-1-1
  8,  9, 38, 39, 40, 41, 42, 43
*Elset, elset=Set-1, instance=Part-1-1
 21, 31, 54, 56, 64, 76, 96
*Nset, nset=Set-2, instance=Part-1-1
  1,  3, 16, 17, 18, 19, 20, 21, 22
*Elset, elset=Set-2, instance=Part-1-1
 11, 12, 15, 20, 40, 58, 74, 97
*Elset, elset=_Surf-1_S2, internal, instance=Part-1-1
  9, 34, 66, 69
*Elset, elset=_Surf-1_S4, internal, instance=Part-1-1
 11, 67, 68
*Surface, type=ELEMENT, name=Surf-1
_Surf-1_S2, S2
_Surf-1_S4, S4
*End Assembly
** 
** MATERIALS
** 
*Material, name=Material-1
*Elastic
2000., 0.3
** 
** BOUNDARY CONDITIONS
** 
** Name: BC-1 Type: Displacement/Rotation
*Boundary
Set-1, 2, 2
** Name: BC-2 Type: Displacement/Rotation
*Boundary
Set-2, 1, 1
** ----------------------------------------------------------------
** 
** STEP: Step-1
** 
*Step, name=Step-1, nlgeom=NO
*Static
1., 1., 1e-05, 1.
** 
** LOADS
** 
** Name: Load-1   Type: Pressure
*Dsload
Surf-1, P, -1.
** 
** OUTPUT REQUESTS
** 
*Restart, write, frequency=0
** 
** FIELD OUTPUT: F-Output-1
** 
*Output, field, variable=PRESELECT
** 
** HISTORY OUTPUT: H-Output-1
** 
*Output, history, variable=PRESELECT
*End Step
